tests/data/power_flow/pandapower/components/asymmetric/sym_load/asym_output.json
{
  "version": "1.0",
  "type": "asym_output",
  "is_batch": false,
  "attributes": {},
  "data": {
    "line": [
      {
        "id": 3,
        "p_from": [
          3333.586276667688,
          3333.586276667689,
          3333.586276667687
        ],
        "q_from": [
          -10878.542988692174,
          -10878.542988692174,
          -10878.542988692174
        ],
        "i_from": [
          1.876858679807204,
          1.8768586798072038,
          1.8768586798072038
        ],
        "p_to": [
          -3333.333333336286,
          -3333.333333336286,
          -3333.3333333362866
        ],
        "q_to": [
          -666.6666666594845,
          -666.6666666594834,
          -666.6666666594853
        ],
        "i_to": [
          0.560743855727528,
          0.5607438557275279,
          0.5607438557275282
        ]
      }
    ],
    "node": [
      {
        "id": 1,
        "u_pu": [
          1.0,
          0.9999999999999999,
          0.9999999999999999
        ],
        "u": [
          6062.177826491071,
          6062.17782649107,
          6062.17782649107
        ],
        "u_angle": [
          7.476579599315108e-33,
          -2.0943951023931953,
          2.0943951023931953
        ]
      },
      {
        "id": 2,
        "u_pu": [
          1.0000051109687556,
          1.0000051109687556,
          1.0000051109687556
        ],
        "u": [
          6062.208810092532,
          6062.208810092532,
          6062.208810092532
        ],
        "u_angle": [
          -5.287548154202472e-05,
          -2.0944479778747374,
          2.094342226911653
        ]
      }
    ],
    "sym_load": [
      {
        "id": 6,
        "p": [
          3333.3333333333335,
          3333.3333333333335,
          3333.3333333333335
        ],
        "q": [
          666.6666666666666,
          666.6666666666666,
          666.6666666666666
        ]
      },
      {
        "id": 7,
        "p": [
          0.0,
          0.0,
          0.0
        ],
        "q": [
          0.0,
          0.0,
          0.0
        ]
      }
    ]
  }
}
